@<TRIPOS>MOLECULE
2f0z.pdb
45 45 1 0 0
SMALL
NO_CHARGES


@<TRIPOS>ATOM
      1 C1         34.2530   27.7430   25.5550 C.2       1 ZMR    0.9446
      2 O1A        34.5710   26.6130   24.8490 O.co2     1 ZMR   -0.7898
      3 O1B        34.2150   28.8730   24.9340 O.co2     1 ZMR   -0.7898
      4 C2         33.9760   27.6940   26.9340 C.3       1 ZMR   -0.0189
      5 C3         33.5770   28.9500   27.6530 C.3       1 ZMR   -0.1144
      6 C4         33.0900   28.6670   29.0860 C.3       1 ZMR    0.0320
      7 C5         33.7970   27.4560   29.6910 C.3       1 ZMR    0.0895
      8 N5         33.2300   27.2730   31.0320 N.2       1 ZMR   -0.7769
      9 C10        33.9170   27.1260   32.1600 C.2       1 ZMR    0.6566
     10 O10        35.2920   27.1310   32.2030 O.3       1 ZMR   -0.6256
     11 C11        33.1590   26.9390   33.4550 C.3       1 ZMR   -0.1304
     12 C6         33.5650   26.2410   28.7720 C.3       1 ZMR    0.0941
     13 O6         34.1130   26.5330   27.4770 O.3       1 ZMR   -0.3926
     14 C7         34.2630   24.9490   29.2640 C.3       1 ZMR    0.1081
     15 O7         35.6760   25.1540   29.3090 O.3       1 ZMR   -0.6378
     16 C8         34.0390   23.7210   28.3490 C.3       1 ZMR    0.0911
     17 O8         32.6450   23.4200   28.2400 O.3       1 ZMR   -0.6028
     18 C9         34.7370   22.4350   28.8470 C.3       1 ZMR    0.1314
     19 O9         35.6840   22.6290   29.8690 O.3       1 ZMR   -0.5998
     20 NE         33.3450   29.8670   29.8650 N.pl3     1 ZMR   -0.3601
     21 CZ         32.4970   30.5190   30.8700 C.cat     1 ZMR    0.5351
     22 NH1        31.3010   30.0260   31.1990 N.pl3     1 ZMR   -0.5111
     23 NH2        32.9390   31.6250   31.4620 N.pl3     1 ZMR   -0.5111
     24 H2         32.9292   27.4769   26.7214 H         1 ZMR    0.0347
     25 H31        34.4380   29.6168   27.6997 H         1 ZMR    0.0847
     26 H32        32.7780   29.4397   27.0963 H         1 ZMR    0.0847
     27 H4         32.0167   28.4782   29.0656 H         1 ZMR    0.0727
     28 H5         34.8654   27.6571   29.7695 H         1 ZMR    0.0627
     29 H6         32.4944   26.0591   28.6779 H         1 ZMR    0.0687
     30 H7         33.9068   24.7135   30.2669 H         1 ZMR    0.0737
     31 H8         34.4196   23.9573   27.3553 H         1 ZMR    0.0787
     32 H91        35.2447   21.9761   27.9987 H         1 ZMR    0.0542
     33 H92        33.9744   21.7451   29.2083 H         1 ZMR    0.0542
     34 HE         34.2324   30.3165   29.6898 H         1 ZMR    0.3157
     35 HH11       30.9608   29.1862   30.7528 H         1 ZMR    0.3105
     36 HH12       30.7362   30.4928   31.8941 H         1 ZMR    0.3105
     37 HH21       33.8434   32.0020   31.2171 H         1 ZMR    0.3105
     38 HH22       32.3702   32.0879   32.1565 H         1 ZMR    0.3105
     39 HO7        36.0931   24.4141   29.7564 H         1 ZMR    0.4440
     40 HO9        35.3138   22.3419   30.7070 H         1 ZMR    0.4100
     41 H10        35.6043   26.2933   32.5528 H         1 ZMR    0.4600
     42 HO8        32.1726   24.1968   27.9318 H         1 ZMR    0.4390
     43 H111       33.8656   26.8341   34.2783 H         1 ZMR    0.0667
     44 H112       32.5221   27.8058   33.6313 H         1 ZMR    0.0667
     45 H113       32.5425   26.0426   33.3889 H         1 ZMR    0.0667
@<TRIPOS>BOND
     1    1    2 2
     2    1    3 2
     3    1    4 1
     4    4    5 1
     5    4   13 1
     6    5    6 1
     7    6    7 1
     8    6   20 1
     9    7    8 1
    10    7   12 1
    11    8    9 2
    12    9   10 1
    13    9   11 1
    14   12   13 1
    15   12   14 1
    16   14   15 1
    17   14   16 1
    18   16   17 1
    19   16   18 1
    20   18   19 1
    21   20   21 2
    22   21   22 2
    23   21   23 2
    24   24    4 1
    25   25    5 1
    26   26    5 1
    27   27    6 1
    28   28    7 1
    29   29   12 1
    30   30   14 1
    31   31   16 1
    32   32   18 1
    33   33   18 1
    34   34   20 1
    35   35   22 1
    36   36   22 1
    37   37   23 1
    38   38   23 1
    39   39   15 1
    40   40   19 1
    41   41   10 1
    42   42   17 1
    43   43   11 1
    44   44   11 1
    45   45   11 1
@<TRIPOS>SUBSTRUCTURE
     1 ZMR     1 RESIDUE           4 A     ZMR     0 ROOT
